version 2
run General-15-20180513-18:48:25-23929
attr configname General
attr datetime 20180513-18:48:25
attr experiment General
attr inifile omnetpp.ini
attr iterationvars "$sharingMode=0, $meanCallRate=2, $sim=999999s"
attr iterationvarsf sharingMode=0,meanCallRate=2,sim=999999s-
attr measurement "$sharingMode=0, $meanCallRate=2, $sim=999999s"
attr network Network
attr processid 23929
attr repetition 0
attr replication #0
attr resultdir results
attr runnumber 15
attr seedset 15
itervar meanCallRate 2
itervar sharingMode 0
itervar sim 999999s
param **.numSrc 3
param **.numBlock 4
param **.sharingMode 0
param **.meanCallDuration 2
param **.meanCallRate 2

scalar Network.sdn "Blocking Probablity:" 0
scalar Network.sdn "Blocking Probablity_low:" 0
scalar Network.sdn "Blocking Probablity_med:" 0
scalar Network.sdn "Blocking Probablity_high:" 0
scalar Network.sdn "Blocking Probablity_bit_rate:" 0
scalar Network.sdn "Intra[0] utilization:" 0
scalar Network.sdn "Intra[1] utilization:" 0
scalar Network.sdn "Intra[2] utilization:" 0
scalar Network.sdn "Intra[3] utilization:" 0
scalar Network.sdn "Inter[0] utilization:" 0
scalar Network.sdn "Inter[1] utilization:" 0
scalar Network.sdn "Inter[2] utilization:" 0
scalar Network.sdn "Compute L1 utilization:" 142.38968488687
scalar Network.sdn "Compute L2 utilization:" 31.590765700745
scalar Network.sdn "Compute L3 utilization:" 1.1435252984596
scalar Network.sdn "Compute L4 utilization:" 0.0071307098338453

